352
Properties=species:S:1:pos:R:3:forces:R:3 generated=T by=T VMD=T energy=-33.75494188299193 pbc="F F F"
H       12.25512000       9.72128700       3.34532500       0.32851625       0.30125719       0.24320380
C       11.81533300       9.61815300       2.36949500      -1.80161062      -2.38026851       1.90624828
H       10.68294300       9.75264500       2.51998800       1.87075066       0.03300097      -0.31551117
H       11.97147300       8.54080900       2.10186300       0.09798526       1.08363621      -0.32957134
C       12.41595500      10.57583700       1.44253500      -0.42462205       0.36118650      -1.21989526
O       13.55895500      10.91986800       1.39239900       1.69141770      -0.01268680       0.86240465
N       11.54577700      11.11843000       0.66593400      -3.11883673       1.40693923      -0.51873273
H       10.56456200      10.80048200       0.82401500       1.08950238      -0.03515809      -0.44635178
C       11.67472100      12.31373300      -0.21103500       1.85923595      -1.81939570       1.62213256
H       12.66457600      12.31238700      -0.67820100      -0.07513691      -0.43827801       0.03981154
C       10.70622600      12.15972400      -1.26388800      -1.66782862       0.04050885      -2.23496146
H        9.75256400      12.56966200      -1.06989400      -0.82583122       0.34987909       0.84281100
H       11.05168700      12.74294300      -2.07302300       0.32423581       0.42029808      -0.87053542
H       10.53905300      11.15789800      -1.63204000       0.39523520      -0.50314279       0.16554951
C       11.63373200      13.65783800       0.45215900       1.29724380       2.22461791      -0.05392664
O       12.04648000      14.65227700      -0.21722200      -1.34218327      -1.06884639       1.24457258
N       11.38922300      13.73521600       1.77564700       0.74985283       0.42936785       1.04182674
H       11.28937800      12.84597200       2.25525200      -0.16095503       0.18687607      -0.10898548
C       11.65130000      14.93019300       2.66923800      -4.13033762       1.04541278      -2.07016957
H       12.65588300      15.16268600       2.72846300       1.72191975       0.12914294       0.46794263
H       11.16997000      15.82803200       2.10249900       0.96937013      -1.62140706       1.16854030
H       11.09132800      14.91773500       3.66097200       1.16419767      -0.57257096      -1.13016141
O        5.30098200       1.36668300       3.85986400       2.01443053       3.27643581       0.71422565
H        4.86815100       2.26188000       4.08996900       0.08380165      -2.75102953      -0.71930829
H        4.64051000       0.73327100       3.72103700      -2.36853616      -0.99382566      -0.03082012
O        0.63940900      10.20042900       9.75188400       0.23448849       0.75997458       1.81526036
H       -0.29613800      10.24010100       9.89947500      -0.91251486      -0.06891659       0.76533083
H        0.64258400       9.96027900       8.87509500       0.38204460      -1.15591662      -2.40910191
O        0.55229600       4.40768200      10.87474300      -2.02184098       2.83729135      -0.62277859
H       -0.41866600       4.25113500      10.82305000       0.66963235      -0.25501493      -0.11021572
H        0.54506400       5.43156200      10.73632600       0.81852648      -2.65599954       0.43779504
O       14.49602300       2.59000300       5.79259300      -2.36286691      -0.48924949      -0.23210367
H       14.14931500       2.63611600       6.71274900       1.36443536       0.18518670      -0.52740555
H       15.44952900       2.67235500       5.81857400       1.21106490       0.09189034       0.94313817
O        8.18067700       7.13151500      12.32144700       0.72453914      -2.49312505      -0.77318487
H        8.96162400       6.53543100      12.27767600       0.17644962       1.20030679       0.22820774
H        7.52090800       6.47395300      12.07181900      -0.83258561       0.69264724       0.04029514
O        5.44752900      12.15902400       7.27080600       0.46996988      -0.45837330       1.26008789
H        5.65182900      13.07128700       7.13083800       0.05443864       0.70498073      -0.06777092
H        4.93857100      11.93748600       6.51673600      -0.68424908      -0.45184899      -1.18295700
O        7.47995100       4.14972000      13.30303400      -2.68438728       0.56831539      -0.66673243
H        6.71628900       3.53280900      13.51882100       1.53595366       0.64363565      -0.26586735
H        6.98531500       4.89843300      12.85893900       0.90094419      -1.31583730       0.75274343
O        8.95659300      12.83469000       3.06980700       0.72215847      -0.07161762      -1.96449548
H        9.08918000      13.69676700       2.63234500      -0.50409942      -0.07101691       0.87127958
H        9.24613000      12.23697600       2.35483700      -0.58656169      -0.05019468       0.98321887
O       12.50512000       4.11253400       9.57335500       0.26233936      -0.29708453      -0.63404974
H       11.60045800       3.87078000       9.71670000      -0.74917190      -0.05151301       0.08333235
H       12.72668300       3.50059600       8.83551300       0.29436288       0.20259349       0.75235166
O        3.39867300      14.39919100      11.70054400      -1.99978581       0.60797116       0.25351522
H        4.23314100      14.62944100      11.34578700       1.31501852       0.08581170      -0.52766155
H        2.79907500      14.98412100      11.18688600       0.45627349      -0.73645598       0.40350796
O        4.05478600       1.92966300       1.18875400      -1.76655866      -0.96018843      -0.78810113
H        3.55993800       1.03951300       1.12423600       0.80338947       1.76537713      -0.31196659
H        4.76270600       1.71702100       1.76116000       0.93119646      -0.41334884       1.01091427
O        1.00284900       9.13322800       1.20302100      -0.23066615       1.39471976      -0.54199740
H        1.26643800       8.29196500       1.55611400       0.24916948      -1.01132884       0.39033912
H        0.06452700       9.03640300       0.99778900      -0.08073870      -0.29325286      -0.14668758
O        4.09054400       5.56654400      14.80065700      -0.44879878       0.74388301      -1.55252613
H        4.24456200       6.38035200      14.29600200       0.79190585       0.22264006       0.79730253
H        3.37856000       5.25300100      14.22231900      -0.40227047      -0.84750083       0.62658746
O       14.85156200      12.46398100       3.94502000      -0.15008291      -0.63390982       0.27970365
H       14.51744800      12.58587900       3.08309100      -0.58749551      -0.46038396      -1.20911642
H       15.21801900      13.32465000       4.09551600       0.66047344       0.86428680       0.73120544
O        7.81338000      13.95780500       5.55596300      -2.32098489       0.77468873      -1.60601612
H        8.45828600      14.57283400       5.22153400       1.43309865       0.44447585       0.51808600
H        7.16727000      14.06315600       4.80775300       0.61171785      -1.00748784       1.47454536
O        4.77468200       2.73467300      13.51856000       0.14329432       0.53387700      -1.70310860
H        4.41548300       2.50601600      14.35875900      -0.71422151      -0.43697730       1.12301007
H        4.02358100       2.63759500      12.89494100       0.69743346      -0.02448776       0.63516908
O        4.15425800       2.83067100       7.13671100      -0.10711265       0.10097141       0.14085664
H        4.92722600       2.32657000       7.23896900       1.99436530      -0.70405831      -0.71763861
H        3.73231600       2.54197400       7.92299200      -1.15464182       0.31573814       1.06077263
O        6.94699300      14.49571100      10.02228800      -0.60413949       0.86717222      -1.35576047
H        6.90486000      15.08171900      10.80225500       0.58023638      -0.60569102       0.16102240
H        7.42047800      13.70407700      10.30678200      -0.12861022       0.02888408       0.91181942
O        7.08443900       8.76668800       3.25632800      -2.24062035       0.54836936      -0.40778115
H        6.24641200       8.52546800       2.71672300       2.42962317      -0.15905319       0.75173395
H        7.80340200       8.21127800       2.94731700      -0.26146668      -0.72979071      -0.63414302
O        1.78464600      14.37436600       7.26823900       0.58009750       0.32523389      -0.34066110
H        1.14845200      13.71760000       7.53443800      -0.54777030      -0.69803045      -0.12326848
H        2.25962300      13.93158500       6.53773200      -0.35200480      -0.17518829      -0.08788714
O        8.39945000      11.81109600       8.13424000       2.36114644      -0.25858853       0.58206360
H        8.06271000      12.58098100       7.68685100      -1.05735242       0.03102886      -0.33407461
H        7.66657900      11.26691600       8.41811400      -1.02775621       0.36321272      -0.26112881
O        7.28432800       5.91586100       9.40788700      -1.90961667       0.84000539       0.66198352
H        6.60735500       6.08294200       8.73380300       0.75870599      -0.40523050      -0.54854140
H        6.73442900       6.17180200      10.19198400       1.12072993      -0.70328617      -0.20113212
O        5.00696400       8.12912700       1.63124800       2.17494197      -0.55881447       0.67088642
H        4.27070900       7.60099300       1.43331500      -1.39137210      -1.14274363      -0.32800011
H        4.78153300       8.96549300       1.30847000      -0.43292590       1.61423499      -0.46947343
O        9.74923000       5.02024000      14.54133600      -1.10133838       2.47636602       1.51509038
H       10.46964700       4.53869900      14.27732900       1.90278662      -1.86041748      -0.83108590
H        9.02125700       4.62992100      14.06806700      -0.90725603      -0.59623570      -0.54475119
O        1.74292000      10.46163100       3.38852900       0.45565475       0.15607864       0.29112611
H        1.24482800      11.27235300       3.63774900      -0.50272926      -0.67309401      -0.65407454
H        1.28450300      10.07225600       2.59914600       0.01125456       0.67090612       0.59668344
O       13.36600100       6.41661100      11.84880600      -0.28993630      -2.85511789      -0.41531597
H       13.65045600       6.32116600      12.74998900       0.09482032       0.23896171       0.66266238
H       13.39406400       7.31479700      11.69461200       0.08268438       2.65547096      -0.24717954
O        0.72598000       1.62459700       8.27977100       0.91012486      -1.14249489      -0.73093493
H        1.33652100       2.23253500       8.67334300       0.15313312       0.37949188       0.42889213
H        1.34601300       0.89242200       7.96523300      -1.44721478       0.78661179       0.26572225
O        0.38085600       1.91268900      11.55491400       0.95456374      -0.95693508       0.19969356
H        0.59681700       2.84815900      11.46878300       0.35179751       0.47580807      -0.39860359
H       -0.46133900       1.95633100      11.96203400      -1.34603878      -0.06910491       0.35655989
O        6.51388400       9.80307200       8.75317700      -0.86429302       0.79516956      -1.20444213
H        5.73491300      10.40471800       8.82512700       0.72746705      -0.46674970       0.24747388
H        6.68553800       9.86950700       7.77252400       0.21828292      -0.49336100       0.70656646
O        3.87075000       3.78083900       3.22937500      -0.70731269      -1.71805387      -0.65769686
H        3.52309700       3.50801900       2.34200000       0.75026533      -0.17480481       0.90487017
H        3.72049700       4.69286900       3.19723900      -0.08004543       2.05966020       0.13964506
O       12.92770300       1.67161400       8.42632700       0.96976708       2.30024599       0.50081498
H       12.55106500       0.93666500       8.03720900      -0.95089064      -2.31411338      -0.92206761
H       13.87946700       1.46396100       8.42326400       0.14267557      -0.18034658       0.31471519
O        0.45808100       5.21390800       7.50646100       0.08043699      -0.61359274       2.94969185
H        0.55794500       5.26121700       6.60094500       0.32549403       0.21441705      -2.47927838
H        1.07820000       4.50951400       7.77961300      -0.39480612       0.59549673      -0.32752232
O        5.69393200       5.77152800      11.72680900       0.85742773      -0.12758209      -0.09943035
H        5.20024600       6.51747300      12.10796400      -0.39411171       0.34405747       0.16504996
H        5.04467400       5.06812600      11.76232400      -0.23328727      -0.32474159      -0.06324360
O        9.22620700       9.15077400      10.07585000      -1.25467775       0.11578236      -2.31757505
H        8.87599900       8.46263700      10.65159700      -0.38440247       0.07716240       0.02034744
H        8.54433000       9.24855800       9.32026300       1.31833509      -0.39004685       2.22589272
O        8.33105800       1.63039000      14.99042700      -2.52796972      -0.35995108       0.79717194
H        8.53262500       2.52644800      15.25826500       0.68082680       0.32988745      -0.19823427
H        9.11943800       1.26022900      14.67055800       1.83242359       0.01066121      -0.57984046
O       10.56557500      11.36436100       9.79184700       0.01486257      -1.97093169       0.25647318
H       10.19676100      10.40732400       9.85083200       0.51852855       2.22867034       0.29785667
H        9.95819100      11.77015200       9.16438700      -0.44385192       0.17762596      -0.25701316
O        5.48978400      10.31638900      12.62600300      -0.73163452       0.19198151      -1.55514829
H        5.24112500      10.12044900      11.68590200       0.36101342       0.40460139       1.15353284
H        5.25369700      11.30833200      12.69599100       0.29068252      -1.63164696       0.26334469
O        5.90553200      12.72248700       2.65479600       1.14307529      -2.88667709      -1.55195609
H        6.84401000      12.75529700       3.00777200      -1.50984606      -0.47095345      -0.92966151
H        5.85886200      11.88668600       2.01089400       0.54186681       3.60031924       2.46073670
O        9.66501400       3.98014300       8.23959700      -2.16004851       1.87896952      -1.58294526
H        9.61265500       4.95841300       8.48341000       0.44943411      -1.73150670      -0.47189659
H        8.99482800       3.94408200       7.45923100       1.85819953      -0.35059007       1.65430325
O        5.68306100       0.20278700       7.30419900       1.52630452      -0.86685922      -1.61640112
H        6.14070200       0.11357500       8.11905900       0.08581232       0.18011235       2.00860581
H        6.39848200      -0.17902500       6.73375400      -1.18463601       0.68489477      -0.21803210
O       15.02403300      11.48720700      13.17455700      -1.39844053      -0.84462475       0.30881378
H       15.16953200      12.33573000      12.81338900       1.10376362       1.68602828      -0.60571382
H       14.05891600      11.44522800      12.99247400       0.55294000      -0.96071804       0.04758361
O        2.23135900       7.23114400       2.66839600       0.95444351      -0.07776052       1.26943647
H        3.06437600       7.39700500       3.19620400      -0.68589389      -0.25554143      -0.86755880
H        1.57982400       7.18718600       3.38021700      -0.06900572       0.10730647      -0.03027901
O        6.02007600       6.01632100       6.53452700      -2.11013419      -2.41300924      -0.71345455
H        5.31922100       5.31806200       6.23315800       2.19257159       2.06557820       0.97806368
H        5.54752500       6.47431800       7.24681300      -0.11965031       0.51064963      -0.02328095
O       11.50920500      13.61180700       7.42133700       2.03819580       0.51385012      -1.43300537
H       12.28900000      13.80251900       6.81241700      -1.15500457       0.62142502       1.57709981
H       11.13569300      12.90756600       6.91620300      -1.27563430      -0.95450052      -0.16960713
O       13.99176200       7.36317600      14.77633000       1.07678542      -1.32798422      -0.33462392
H       13.33386500       6.76165400      15.15065700      -0.80255203       0.42021931       0.48637237
H       14.71493500       6.71637500      14.70436100      -0.02658311       0.93329626      -0.13519982
O       11.13459600       3.23350800       3.17424400       0.11201495      -1.09629098      -1.02914295
H       11.61566800       2.67576300       3.81131200      -0.05262738       0.87597770       0.24347846
H       10.93198700       4.02436400       3.68146300       0.15234543       0.34323559       0.33976045
O       11.38805400       8.58356700      12.09707300       1.79630411       0.61262679      -1.47471119
H       11.13351700       7.72145000      11.80658500      -0.67684484      -1.07136491      -0.02853128
H       10.84471300       8.75924700      12.81462200      -1.36893345       0.30251748       1.61029656
O        1.45288300       6.85858200      10.66336800      -0.36598101       0.37394596       0.37549645
H        1.64725900       6.65827100       9.73219600      -0.09463241       0.68075114       0.17237128
H        1.09783900       7.77386900      10.69891700       0.42310058      -0.56493561      -0.67733715
O       12.94116500       9.08327900       9.90965500       1.12375629       0.08161365      -0.47960347
H       12.17772700       8.92329900      10.46176100      -0.75476964      -0.26510972       0.30746538
H       12.61565800       9.00728600       8.99030600      -0.09695567       0.10171805       0.21276602
O       12.21356900       6.37824300       7.45551400       0.57592380      -0.26193411      -0.52474193
H       12.75710900       5.58031500       7.59573500      -0.55490403       0.39260682       0.08271216
H       11.30041100       6.12616100       7.72748700       0.65327546       0.29224856      -0.02548222
O       10.57022100       6.06197000      11.19393500       1.74676290       1.05811937      -0.30956104
H       11.55325400       6.00839100      11.04185900      -0.85605757       0.27137285       0.29270356
H       10.33869000       5.15976300      11.16857000      -0.68623591      -1.54548879       0.08000998
O        7.33154700      12.62426500      11.96661900      -1.20261802       1.18096706      -2.07409763
H        6.51105400      12.39162600      12.46961600       1.18738254       0.16899460       0.21380970
H        8.06804800      12.27593900      12.39192000       0.79027659      -1.26023299       1.63879831
O        0.68038700       8.21732100       7.64841600       0.76190751       1.42897367      -1.93303992
H        0.57811700       7.97757800       6.68876600       0.08687123       0.08724114       1.14099207
H        0.33877800       7.47614200       8.08666300      -0.84251873      -1.55774972       0.57958032
O        9.64932300       8.85661700       5.19445400      -0.48623245      -0.50650600       0.10408007
H        9.28406600       7.95519600       5.29589700      -0.23541920       0.35233438      -0.11278295
H       10.57339100       8.68117900       5.21529200       1.05175571      -0.04034769      -0.04248076
O        2.07263300       2.94133300       5.67934700      -1.49841427       0.10230021      -1.24217844
H        2.82888900       2.83269400       6.26021000       1.06808980       0.11340169       0.32359737
H        2.41224500       3.49785200       4.96208400       0.26018773      -0.10709192       0.31825666
O       13.47442400      13.57226800       9.35416800       1.02149619      -0.40438374       1.11023092
H       12.65624600      13.15010900       9.14885800      -1.04405506      -0.04740679      -0.77369687
H       13.86399800      12.93285800       9.96908300       0.19686515       0.53559229      -0.15241073
O        9.65056000       2.86758500      11.21004900      -0.35151146       0.89542729      -1.11216904
H        8.92234200       3.23905900      10.62516000       1.72367131      -1.51127633       0.59703789
H        9.95942800       1.99844700      10.80775300      -1.02507290       1.06267965       0.10521599
O        4.95350800      12.72537700      13.03092200      -2.28345587      -0.06029217      -1.13774806
H        5.01509000      13.11926500      13.91485000      -0.49551780       0.63864629      -0.14717677
H        4.06632600      13.04334300      12.60627600       2.37869315      -0.00338397       1.60134183
O        2.77207000       4.20461900       9.34429500      -0.87155112      -0.83732416       0.59025448
H        3.48954300       3.83193700       9.90068300      -0.33635682       0.03780087      -0.33774978
H        1.94153100       3.95340500       9.84906900       1.21552154       0.80992517      -0.39379560
O       11.26211300       2.62190100       0.07818400      -0.89829301       2.28006676       0.31716945
H       11.59645200       2.74193600       0.99147900       0.01499803      -0.87260206      -0.57050847
H       11.57150700       1.81316800      -0.27429900       0.84021061      -1.45822164       0.42091475
O       13.23328100       8.21849400       5.45494800      -1.72275925       4.67437886       0.29175522
H       13.19825600       9.18183400       5.85397600      -0.37022000      -3.70873986      -0.58051103
H       12.79641100       7.63108500       6.07335500      -0.64469177       0.16812296       1.32119563
O        1.52450500       9.16655800      12.80764400       0.65662208       0.37802948      -0.56928653
H        0.87237700       8.54899400      13.06428100      -0.73141894      -0.85771378       0.51429475
H        1.00486700       9.98728400      12.79762500       0.14988910       0.47974960       0.10290777
O        6.46943900       4.19639200       3.98282900      -0.57417846      -0.20782848       1.28368734
H        5.52645100       3.92172100       4.04177500       0.65476169       0.44376382      -0.26466510
H        6.61643500       4.17132300       3.04480700       0.18287546       0.12733438      -1.17726702
O        3.35327400      10.25627000      10.07908900       0.09093113      -1.68632885       0.77265319
H        2.52959700       9.89478500      10.46832600       0.43015346       0.04760382      -0.29268490
H        3.08989800      11.13422800       9.92926000      -0.13338089       1.56476633      -0.42337730
O       11.99488200       9.78301900       7.46695700       0.20847417       2.97250361      -1.60786096
H       11.13699200       9.70859700       7.83904700      -1.00678722      -0.63236554       0.66418696
H       11.91091000      10.71474200       7.06034900       0.64344080      -2.25198995       0.75638958
O        0.13436100      14.17134700      12.33103600       0.22358321       2.29102179       1.20159196
H        0.39289800      14.92294700      11.75179600      -0.23882075      -0.94893179      -0.26170092
H        0.04399300      14.67768800      13.17740100      -0.09352313      -1.36898528      -0.79636871
O        0.22906100       2.68536800       1.26325300       0.75437476      -0.34194005      -0.05023510
H        1.16814500       2.52630800       1.14008400       0.19486381       0.68789937       0.12666692
H       -0.07999800       1.80481500       1.06028400      -0.92926767      -0.69782834      -0.04591931
O       12.64095500       5.57114500       1.19773800      -1.21238116      -0.83640588       2.09050427
H       12.35746000       5.36469700       2.13180800       0.91259466       0.59039751      -1.00898030
H       11.83824500       5.30173000       0.76319000      -0.35395121       0.00954676      -0.97122430
O        0.85406100      12.28161600       0.96372800      -0.88938699      -1.03968134      -0.20342781
H        1.28689500      11.84635900       0.19742100      -0.50126375       0.24607782       0.60539875
H        0.09517500      11.64637900       1.16659100       1.23109903       1.01313430      -0.51739574
O        8.41590000       6.20049200       5.38349100       2.12438506      -1.40860788      -2.00167211
H        7.71625200       6.54555500       5.89407200      -1.83354293       0.20865658       0.91942990
H        8.03119700       5.38123000       4.96374500       0.20229085       1.44481027       0.80408698
O        8.72941800       6.76204200       2.01516600      -1.01609330       2.19664475       1.12422269
H        9.56016300       6.57303700       2.45325400       0.54833412      -0.77530022      -0.14731980
H        8.66632400       6.20956200       1.26321000       0.62530022      -1.29945139      -0.99624676
O       12.60925200       3.05655800      12.41280500      -0.51630542      -0.66768387       0.55351418
H       11.86901000       2.50595400      12.79065300       0.76947965       0.92129236      -0.78558780
H       12.19102100       3.56291100      11.69692400       0.07936792      -0.38474863       0.23876375
O        4.12134500       7.64755800      12.73501900      -0.97351584      -1.43501604       0.37699305
H        4.48477100       8.47139000      12.52131000       0.90644036       1.84329571      -0.17592622
H        3.16928300       7.83871200      12.66486200      -0.00377953      -0.10818536       0.09847217
O       15.17395600       6.96421900       5.03780700       2.73848876      -1.42034023      -0.23990071
H       14.30839500       7.37989900       5.29982800       0.16626879       0.38096153      -0.33312939
H       14.95077000       6.55749400       4.19704600      -0.08262313      -0.22794864      -0.17002792
O        8.03770300       3.34205500       5.99047000      -1.97240341       0.20454301      -2.43531315
H        8.08730900       2.43412100       5.59915200       0.46056741       0.85516417       0.62854631
H        7.43452000       3.81075200       5.28762100       1.56484924      -1.32651250       2.08180864
O       14.82452000       5.26705300       2.84111700      -0.71109461       0.44183918      -0.33644181
H       15.64695000       5.32625200       2.45528000       2.73463326       0.28515008      -0.28237452
H       14.34343900       5.04078100       2.04406100      -1.21501369      -0.21073980      -0.01219325
O        5.04847100      10.46292300       4.53385500       0.26391058       1.01150296      -0.50022525
H        5.35902700      10.61418300       3.62274500      -0.16619832       0.16684194       0.63040773
H        4.78546000       9.55927700       4.50051200      -0.31730833      -1.07769748       0.13355087
O        2.59439400      13.02547100       4.82393500      -0.60093175      -0.65287021       1.43711998
H        2.99845600      13.31744100       4.05242100       1.32667833       2.05390803      -1.86928930
H        2.63994400      12.10378100       4.61965000      -0.33920596      -1.14149992       0.84858183
O        7.88012500       9.29808000      13.53404600      -1.32205586      -0.17306879      -0.43694828
H        7.96443000       8.38109600      13.13904800       0.20608210       0.78025020       0.07389807
H        6.96507100       9.55278300      13.24988700       0.80892917       0.15158988       0.10941145
O        8.90654000       9.63609800       0.80680700      -0.09940848       1.10052996      -0.56413341
H        8.47637400       9.51559100      -0.08270300       0.31356165       0.48716627       0.07489232
H        8.83869600       8.76022000       1.12994000       0.05056167      -1.23987757       0.95177990
O       13.27906500       4.75065300       4.75662300       3.27045563      -1.57712054       1.25721699
H       14.08118700       4.13902400       5.00025800      -3.58752973       1.02011878       0.04081491
H       13.75455300       5.24860400       4.09187000      -0.47241377       0.48220386      -0.83610221
O        1.17023700      11.45720500       6.69808900      -0.03218842      -0.80052167       0.56382456
H        1.24581200      10.92230900       7.51115100       0.02833229       0.24675771      -1.00501597
H        1.21285200      10.81638700       5.96030600      -0.07523195       0.40986437       0.71680014
O        6.08345900       3.90296700       1.06082400       0.83486886       0.06968189       0.65657026
H        5.76146100       3.01922600       0.93015200      -0.31881426      -0.33705745      -0.22684277
H        5.63641500       4.39726800       0.37273100      -0.41973841       0.52762838      -0.17761871
O       11.54277300       2.81714100       5.80851900      -1.36840488       0.09322339       0.78624282
H       11.08287000       3.11711000       6.64083600       0.99720131      -0.77829964      -1.02052610
H       12.23814400       2.20520400       6.07169200      -0.15886145       0.14047109       0.50645832
O        4.83679100       7.60735100       8.36978100      -0.47908111       0.17803639       0.72879678
H        5.55627500       8.10930700       8.73045200       1.55259868       0.21208405      -0.29880293
H        4.15240700       8.15788300       8.74817100      -1.13699147      -0.32415082      -0.35894264
O       10.32761500       0.39886200      10.25306800       2.95273894      -0.29897601      -0.11954667
H       11.35661300       0.29441100      10.25594800      -3.21036359       0.11669131      -0.59299065
H       10.01356200      -0.11596200       9.49115000       0.48616923       0.02373138       0.04551946
O       13.26794700       0.02659400       5.79657600       0.34475603       0.28312593       0.17276823
H       13.91269900       0.72182100       6.08843300      -0.43714727      -0.94290393      -0.92579978
H       13.65930700      -0.37243100       4.99488900       0.24125739       0.57838014       0.62184477
O        4.67075500       2.37615400      10.38668700      -0.69273430       1.86896800       0.90821991
H        5.60628400       2.37991200      10.51587600       1.22310818       0.49254222       0.09914761
H        4.56599300       1.52907600      10.05423500      -0.87493713      -2.23562477      -1.00500871
O        7.16679600       2.77785300       9.22984700       0.39899536      -1.10666561      -0.49190171
H        7.44429500       3.67518300       9.35784600       0.16883913       0.86961508      -0.32119390
H        7.68322500       2.47339700       8.44692000      -0.47162194       0.49555822       0.79111299
O        3.55786900      15.13902200       9.02461000       0.74698400       1.14560417       1.13412056
H        4.13113500      15.22649300       8.25709100       0.44663472      -0.23556845      -0.41009445
H        2.86083700      14.58578500       8.69549700      -0.76447785      -0.55905492      -0.60865002
O       12.76142900      11.17802800      11.65490200      -1.26181873       2.58344966      -0.02054157
H       12.65615100      10.46271900      11.03897200       0.13210713      -0.90723841      -0.44487383
H       12.01380900      11.78828400      11.37729500       1.28253690      -1.35864173       0.45307612
O       10.75416600      11.53790600       5.68219500       1.69891107       1.51926718       0.53594674
H       10.30301900      10.72452100       5.79780600      -1.29049666      -1.17495578      -0.42529573
H       10.44170200      11.90001000       4.85144700      -0.66274840      -0.24593893      -0.14300101
O        6.73305100      11.68387000       0.22231800      -0.79090881       3.31676319      -0.66309146
H        7.46920000      11.33725100       0.71061000      -0.11417383      -2.27130895      -0.09038939
H        6.09535700      11.03412700      -0.09059600       1.08290034      -1.33679385       0.59979790
O        9.83687500       6.66779500       8.47158500       0.60061668      -0.34509494      -0.17893911
H       10.14394400       6.88385700       9.39768800      -1.74890831      -0.19917431      -0.94798761
H        8.85796700       6.60281800       8.41706300       0.49115030       0.49221885       1.48583205
O        1.84488200       5.45302200      13.19396400       2.35842063      -0.19396731       2.22718825
H        1.04648200       5.36154400      13.71026400      -0.85672296      -0.51975050      -0.02334676
H        1.56541500       5.69734000      12.35397400      -0.92717408       0.54086977      -2.18032103
O        4.62524200       7.11642900       4.23377400       1.97354348      -0.61309008       0.51781549
H        4.50239500       6.62616600       5.04398800      -0.95139953      -0.05293748       0.37325362
H        5.61541500       7.02390500       4.18891500      -1.35698345       0.73074837      -0.74185887
O        7.49441900       0.55706400       2.61496200      -1.96825771      -0.43897035       2.62279242
H        7.26489000       1.02038100       1.81118400      -0.30576979       0.31448614      -0.21631993
H        6.65947200       0.64566400       3.25501000       2.59979411       0.27532164      -2.69525940
O        3.83415000      10.61516900       1.56435500       0.19152963      -0.68972763      -0.50021385
H        3.16363800      10.58239800       2.29046900       0.13336431      -0.20147622      -0.66659147
H        3.57592700       9.90835400       0.92590900      -0.62499448       1.14863054       0.98494763
O        0.48538200       0.12474600       3.81496900       1.72917474       0.22974787       0.61092602
H        0.48197000       1.07542200       3.73720000      -0.80662934       0.49877529      -0.25946949
H        1.38995600       0.02108300       4.19477000      -0.93981849      -0.72749088      -0.25464907
O       10.81953000       5.95576400       3.91317900      -4.11013766      -0.12071057      -0.44989636
H       11.57225000       6.00962000       4.43348500       1.89125118      -0.12298242       1.78842727
H       10.03709300       5.90124900       4.57436000       2.04436254       0.27410176      -1.33481428
O        3.39230000       5.48445200       6.42424500       0.29465929      -0.78568418      -1.81706374
H        3.39634000       4.91954900       7.18669200      -0.08169584      -0.52516479       0.90666112
H        3.25193900       6.33614500       6.76501300      -0.43579992       1.47316691       0.94255259
O        3.64980700      14.28591300       2.81141300      -1.95095974       0.43250097      -2.68688507
H        4.30719900      13.83307000       2.26466400       0.96466268      -0.36885088       0.81054599
H        2.91707900      14.33915900       2.11735500       1.12190109       0.26177554       1.66635690
O       14.61701500       4.41203500      14.22026100      -0.88306997      -0.58285854       0.28457590
H       14.30676100       3.83467600      14.95430900       0.69441539       0.67409520      -0.12145162
H       14.24797500       3.93176300      13.46765000      -0.07387413       0.26070906      -0.30786545
O        7.52888400       1.34936800      12.09659600      -1.03739083       0.01153460      -0.84119936
H        7.82636000       2.13290200      11.60181000       0.12730640      -0.46868056       0.53986858
H        8.21007500       1.22845500      12.74916600       0.54042722       0.09474393       0.42510606
O       14.44407600      15.10386400       0.56215500       1.69606089      -0.66566801       1.40178819
H       14.45403600      14.31569500       1.19750700      -0.49259922       1.67515616      -1.66402494
H       13.53259200      15.23733900       0.26801400      -0.51531045      -0.90624240       0.20871877
O       10.46512500       0.51912700      12.86373200      -1.12988158       0.93846492      -0.01520915
H       11.03813600      -0.09285400      13.32768400       0.29228898      -0.63376783      -0.41285757
H       10.22465900       0.13034500      11.98083900       0.68028474       0.07768258       0.86315088
O        2.54656300      14.98498700       0.39264400      -0.85048885      -0.73702083       1.14942859
H        2.77318400      15.09585600      -0.51151900       0.43034313       0.07337644      -1.26397450
H        1.88155600      14.27806400       0.36092000      -0.07497326       0.06042970       0.01836808
O        5.61989700      -0.01175200      14.71858600      -3.12447489      -1.33146662       0.59549362
H        5.90364700       0.60317700      14.10770500       1.08258941       1.69511775      -1.74920887
H        6.36382100      -0.21890700      15.20025300       2.19559796      -0.52937165       1.04763073
O        9.29101100       1.13040900       4.57153700       1.83274488       1.28883838      -0.63301849
H       10.16600800       1.61121400       4.42227200      -1.89945968      -0.84900262       0.85034997
H        8.88999100       1.18765700       3.68801900      -0.42784845      -0.26905644       0.12931085
O        7.21208600       9.63817000       6.04476200      -0.37266700      -0.25062358       2.01915663
H        7.98496700       9.42213400       5.48435700      -0.64143013       0.60978180      -0.64072536
H        6.57814500      10.17776400       5.53598800       0.72889110      -0.32354140      -0.87639538
